 INFO
nunit      1    1    1
unit   cell
celltype   convcell
shape   parapipedal
 END_INFO
 DIM-GROUP
           3           1
 PRIMVEC
    5.6608000000    0.0000000000    0.0000000000
    0.0000000000    5.6608000000    0.0000000000
    0.0000000000    0.0000000000   28.3040000000
 CONVVEC
    5.6608000000    0.0000000000    0.0000000000
    0.0000000000    5.6608000000    0.0000000000
    0.0000000000    0.0000000000   28.3040000000
 PRIMCOORD
          40           1
 33      1.4152000000     1.4152000000     1.4152000000
 33      4.2456000000     1.4152000000     4.2456000000
 33      4.2456000000     4.2456000000     1.4152000000
 33      1.4152000000     4.2456000000     4.2456000000
 33      1.4152000000     1.4152000000    24.0584000000
 33      1.4152000000     1.4152000000    12.7368000000
 33      1.4152000000     1.4152000000     7.0760000000
 33      1.4152000000     1.4152000000    18.3976000000
 33      4.2456000000     1.4152000000    26.8888000000
 33      4.2456000000     1.4152000000    15.5672000000
 33      4.2456000000     1.4152000000     9.9064000000
 33      4.2456000000     1.4152000000    21.2280000000
 33      4.2456000000     4.2456000000    24.0584000000
 33      4.2456000000     4.2456000000    12.7368000000
 33      4.2456000000     4.2456000000     7.0760000000
 33      4.2456000000     4.2456000000    18.3976000000
 33      1.4152000000     4.2456000000    26.8888000000
 33      1.4152000000     4.2456000000    15.5672000000
 33      1.4152000000     4.2456000000     9.9064000000
 33      1.4152000000     4.2456000000    21.2280000000
 13      0.0000000000     0.0000000000     0.0000000000
 13      2.8304000000     2.8304000000     0.0000000000
 13      2.8304000000     0.0000000000     2.8304000000
 13      0.0000000000     2.8304000000     2.8304000000
 31      0.0000000000     0.0000000000     5.6608000000
 31      2.8304000000     2.8304000000     5.6608000000
 31      2.8304000000     0.0000000000     8.4912000000
 31      0.0000000000     2.8304000000     8.4912000000
 13      0.0000000000     0.0000000000    11.3216000000
 13      2.8304000000     2.8304000000    11.3216000000
 13      2.8304000000     0.0000000000    14.1520000000
 13      0.0000000000     2.8304000000    14.1520000000
 31      0.0000000000     0.0000000000    16.9824000000
 31      2.8304000000     2.8304000000    16.9824000000
 31      2.8304000000     0.0000000000    19.8128000000
 31      0.0000000000     2.8304000000    19.8128000000
 13      0.0000000000     0.0000000000    22.6432000000
 13      2.8304000000     2.8304000000    22.6432000000
 13      2.8304000000     0.0000000000    25.4736000000
 13      0.0000000000     2.8304000000    25.4736000000
 CONVCOORD
          40           1
 33      1.4152000000     1.4152000000     1.4152000000
 33      4.2456000000     1.4152000000     4.2456000000
 33      4.2456000000     4.2456000000     1.4152000000
 33      1.4152000000     4.2456000000     4.2456000000
 33      1.4152000000     1.4152000000    24.0584000000
 33      1.4152000000     1.4152000000    12.7368000000
 33      1.4152000000     1.4152000000     7.0760000000
 33      1.4152000000     1.4152000000    18.3976000000
 33      4.2456000000     1.4152000000    26.8888000000
 33      4.2456000000     1.4152000000    15.5672000000
 33      4.2456000000     1.4152000000     9.9064000000
 33      4.2456000000     1.4152000000    21.2280000000
 33      4.2456000000     4.2456000000    24.0584000000
 33      4.2456000000     4.2456000000    12.7368000000
 33      4.2456000000     4.2456000000     7.0760000000
 33      4.2456000000     4.2456000000    18.3976000000
 33      1.4152000000     4.2456000000    26.8888000000
 33      1.4152000000     4.2456000000    15.5672000000
 33      1.4152000000     4.2456000000     9.9064000000
 33      1.4152000000     4.2456000000    21.2280000000
 13      0.0000000000     0.0000000000     0.0000000000
 13      2.8304000000     2.8304000000     0.0000000000
 13      2.8304000000     0.0000000000     2.8304000000
 13      0.0000000000     2.8304000000     2.8304000000
 31      0.0000000000     0.0000000000     5.6608000000
 31      2.8304000000     2.8304000000     5.6608000000
 31      2.8304000000     0.0000000000     8.4912000000
 31      0.0000000000     2.8304000000     8.4912000000
 13      0.0000000000     0.0000000000    11.3216000000
 13      2.8304000000     2.8304000000    11.3216000000
 13      2.8304000000     0.0000000000    14.1520000000
 13      0.0000000000     2.8304000000    14.1520000000
 31      0.0000000000     0.0000000000    16.9824000000
 31      2.8304000000     2.8304000000    16.9824000000
 31      2.8304000000     0.0000000000    19.8128000000
 31      0.0000000000     2.8304000000    19.8128000000
 13      0.0000000000     0.0000000000    22.6432000000
 13      2.8304000000     2.8304000000    22.6432000000
 13      2.8304000000     0.0000000000    25.4736000000
 13      0.0000000000     2.8304000000    25.4736000000
 RECIP-PRIMVEC
    0.1766534765    0.0000000000    0.0000000000

    0.0000000000    0.1766534765    0.0000000000

    0.0000000000    0.0000000000    0.0353306953

 RECIP-CONVVEC
    0.1766534765    0.0000000000    0.0000000000

    0.0000000000    0.1766534765    0.0000000000

    0.0000000000    0.0000000000    0.0353306953

 WIGNER-SEITZ-PRIMCELL
           4
 -0.2830400E+01  0.2830400E+01  0.1415200E+02  -0.1000000E+01  0.0000000E+00  0.0000000E+00
 -0.2830400E+01  0.2830400E+01 -0.1415200E+02  -0.1000000E+01  0.0000000E+00  0.0000000E+00
 -0.2830400E+01 -0.2830400E+01 -0.1415200E+02  -0.1000000E+01  0.0000000E+00  0.0000000E+00
 -0.2830400E+01 -0.2830400E+01  0.1415200E+02  -0.1000000E+01  0.0000000E+00  0.0000000E+00
           4
 -0.2830400E+01 -0.2830400E+01 -0.1415200E+02  -0.0000000E+00 -0.1000000E+01 -0.0000000E+00
  0.2830400E+01 -0.2830400E+01 -0.1415200E+02  -0.0000000E+00 -0.1000000E+01 -0.0000000E+00
  0.2830400E+01 -0.2830400E+01  0.1415200E+02  -0.0000000E+00 -0.1000000E+01 -0.0000000E+00
 -0.2830400E+01 -0.2830400E+01  0.1415200E+02  -0.0000000E+00 -0.1000000E+01 -0.0000000E+00
           4
 -0.2830400E+01  0.2830400E+01 -0.1415200E+02   0.0000000E+00  0.0000000E+00 -0.1000000E+01
  0.2830400E+01  0.2830400E+01 -0.1415200E+02   0.0000000E+00  0.0000000E+00 -0.1000000E+01
  0.2830400E+01 -0.2830400E+01 -0.1415200E+02   0.0000000E+00  0.0000000E+00 -0.1000000E+01
 -0.2830400E+01 -0.2830400E+01 -0.1415200E+02   0.0000000E+00  0.0000000E+00 -0.1000000E+01
           4
 -0.2830400E+01 -0.2830400E+01  0.1415200E+02  -0.0000000E+00 -0.1751708E-16  0.1000000E+01
  0.2830400E+01 -0.2830400E+01  0.1415200E+02  -0.0000000E+00 -0.1751708E-16  0.1000000E+01
  0.2830400E+01  0.2830400E+01  0.1415200E+02  -0.0000000E+00 -0.1751708E-16  0.1000000E+01
 -0.2830400E+01  0.2830400E+01  0.1415200E+02  -0.0000000E+00 -0.1751708E-16  0.1000000E+01
           4
 -0.2830400E+01  0.2830400E+01  0.1415200E+02   0.0000000E+00  0.1000000E+01  0.0000000E+00
  0.2830400E+01  0.2830400E+01  0.1415200E+02   0.0000000E+00  0.1000000E+01  0.0000000E+00
  0.2830400E+01  0.2830400E+01 -0.1415200E+02   0.0000000E+00  0.1000000E+01  0.0000000E+00
 -0.2830400E+01  0.2830400E+01 -0.1415200E+02   0.0000000E+00  0.1000000E+01  0.0000000E+00
           4
  0.2830400E+01 -0.2830400E+01 -0.1415200E+02   0.1000000E+01 -0.0000000E+00 -0.0000000E+00
  0.2830400E+01  0.2830400E+01 -0.1415200E+02   0.1000000E+01 -0.0000000E+00 -0.0000000E+00
  0.2830400E+01  0.2830400E+01  0.1415200E+02   0.1000000E+01 -0.0000000E+00 -0.0000000E+00
  0.2830400E+01 -0.2830400E+01  0.1415200E+02   0.1000000E+01 -0.0000000E+00 -0.0000000E+00
 WIGNER-SEITZ-PRIMCELL_END
 WIGNER-SEITZ-CONVCELL
           4
 -0.2830400E+01  0.2830400E+01  0.1415200E+02  -0.1000000E+01  0.0000000E+00  0.0000000E+00
 -0.2830400E+01  0.2830400E+01 -0.1415200E+02  -0.1000000E+01  0.0000000E+00  0.0000000E+00
 -0.2830400E+01 -0.2830400E+01 -0.1415200E+02  -0.1000000E+01  0.0000000E+00  0.0000000E+00
 -0.2830400E+01 -0.2830400E+01  0.1415200E+02  -0.1000000E+01  0.0000000E+00  0.0000000E+00
           4
 -0.2830400E+01 -0.2830400E+01 -0.1415200E+02  -0.0000000E+00 -0.1000000E+01 -0.0000000E+00
  0.2830400E+01 -0.2830400E+01 -0.1415200E+02  -0.0000000E+00 -0.1000000E+01 -0.0000000E+00
  0.2830400E+01 -0.2830400E+01  0.1415200E+02  -0.0000000E+00 -0.1000000E+01 -0.0000000E+00
 -0.2830400E+01 -0.2830400E+01  0.1415200E+02  -0.0000000E+00 -0.1000000E+01 -0.0000000E+00
           4
 -0.2830400E+01  0.2830400E+01 -0.1415200E+02   0.0000000E+00  0.0000000E+00 -0.1000000E+01
  0.2830400E+01  0.2830400E+01 -0.1415200E+02   0.0000000E+00  0.0000000E+00 -0.1000000E+01
  0.2830400E+01 -0.2830400E+01 -0.1415200E+02   0.0000000E+00  0.0000000E+00 -0.1000000E+01
 -0.2830400E+01 -0.2830400E+01 -0.1415200E+02   0.0000000E+00  0.0000000E+00 -0.1000000E+01
           4
 -0.2830400E+01 -0.2830400E+01  0.1415200E+02  -0.0000000E+00 -0.1751708E-16  0.1000000E+01
  0.2830400E+01 -0.2830400E+01  0.1415200E+02  -0.0000000E+00 -0.1751708E-16  0.1000000E+01
  0.2830400E+01  0.2830400E+01  0.1415200E+02  -0.0000000E+00 -0.1751708E-16  0.1000000E+01
 -0.2830400E+01  0.2830400E+01  0.1415200E+02  -0.0000000E+00 -0.1751708E-16  0.1000000E+01
           4
 -0.2830400E+01  0.2830400E+01  0.1415200E+02   0.0000000E+00  0.1000000E+01  0.0000000E+00
  0.2830400E+01  0.2830400E+01  0.1415200E+02   0.0000000E+00  0.1000000E+01  0.0000000E+00
  0.2830400E+01  0.2830400E+01 -0.1415200E+02   0.0000000E+00  0.1000000E+01  0.0000000E+00
 -0.2830400E+01  0.2830400E+01 -0.1415200E+02   0.0000000E+00  0.1000000E+01  0.0000000E+00
           4
  0.2830400E+01 -0.2830400E+01 -0.1415200E+02   0.1000000E+01 -0.0000000E+00 -0.0000000E+00
  0.2830400E+01  0.2830400E+01 -0.1415200E+02   0.1000000E+01 -0.0000000E+00 -0.0000000E+00
  0.2830400E+01  0.2830400E+01  0.1415200E+02   0.1000000E+01 -0.0000000E+00 -0.0000000E+00
  0.2830400E+01 -0.2830400E+01  0.1415200E+02   0.1000000E+01 -0.0000000E+00 -0.0000000E+00
 WIGNER-SEITZ-CONVCELL_END
 BRILLOUIN-ZONE-PRIMCELL
           4
 -0.8832674E-01 -0.8832674E-01  0.1766535E-01  -0.1000000E+01  0.0000000E+00  0.0000000E+00
 -0.8832674E-01  0.8832674E-01  0.1766535E-01  -0.1000000E+01  0.0000000E+00  0.0000000E+00
 -0.8832674E-01  0.8832674E-01 -0.1766535E-01  -0.1000000E+01  0.0000000E+00  0.0000000E+00
 -0.8832674E-01 -0.8832674E-01 -0.1766535E-01  -0.1000000E+01  0.0000000E+00  0.0000000E+00
           4
 -0.8832674E-01 -0.8832674E-01 -0.1766535E-01  -0.0000000E+00 -0.1000000E+01 -0.0000000E+00
  0.8832674E-01 -0.8832674E-01 -0.1766535E-01  -0.0000000E+00 -0.1000000E+01 -0.0000000E+00
  0.8832674E-01 -0.8832674E-01  0.1766535E-01  -0.0000000E+00 -0.1000000E+01 -0.0000000E+00
 -0.8832674E-01 -0.8832674E-01  0.1766535E-01  -0.0000000E+00 -0.1000000E+01 -0.0000000E+00
           4
 -0.8832674E-01  0.8832674E-01 -0.1766535E-01  -0.1389715E-16  0.1389715E-16 -0.1000000E+01
  0.8832674E-01  0.8832674E-01 -0.1766535E-01  -0.1389715E-16  0.1389715E-16 -0.1000000E+01
  0.8832674E-01 -0.8832674E-01 -0.1766535E-01  -0.1389715E-16  0.1389715E-16 -0.1000000E+01
 -0.8832674E-01 -0.8832674E-01 -0.1766535E-01  -0.1389715E-16  0.1389715E-16 -0.1000000E+01
           4
 -0.8832674E-01 -0.8832674E-01  0.1766535E-01  -0.1389715E-16  0.1389715E-16  0.1000000E+01
  0.8832674E-01 -0.8832674E-01  0.1766535E-01  -0.1389715E-16  0.1389715E-16  0.1000000E+01
  0.8832674E-01  0.8832674E-01  0.1766535E-01  -0.1389715E-16  0.1389715E-16  0.1000000E+01
 -0.8832674E-01  0.8832674E-01  0.1766535E-01  -0.1389715E-16  0.1389715E-16  0.1000000E+01
           4
 -0.8832674E-01  0.8832674E-01  0.1766535E-01   0.0000000E+00  0.1000000E+01  0.0000000E+00
  0.8832674E-01  0.8832674E-01  0.1766535E-01   0.0000000E+00  0.1000000E+01  0.0000000E+00
  0.8832674E-01  0.8832674E-01 -0.1766535E-01   0.0000000E+00  0.1000000E+01  0.0000000E+00
 -0.8832674E-01  0.8832674E-01 -0.1766535E-01   0.0000000E+00  0.1000000E+01  0.0000000E+00
           4
  0.8832674E-01 -0.8832674E-01 -0.1766535E-01   0.1000000E+01 -0.0000000E+00 -0.0000000E+00
  0.8832674E-01  0.8832674E-01 -0.1766535E-01   0.1000000E+01 -0.0000000E+00 -0.0000000E+00
  0.8832674E-01  0.8832674E-01  0.1766535E-01   0.1000000E+01 -0.0000000E+00 -0.0000000E+00
  0.8832674E-01 -0.8832674E-01  0.1766535E-01   0.1000000E+01 -0.0000000E+00 -0.0000000E+00
 BRILLOUIN-ZONE-PRIMCELL_END
 BRILLOUIN-ZONE-CONVCELL
           4
 -0.8832674E-01 -0.8832674E-01  0.1766535E-01  -0.1000000E+01  0.0000000E+00  0.0000000E+00
 -0.8832674E-01  0.8832674E-01  0.1766535E-01  -0.1000000E+01  0.0000000E+00  0.0000000E+00
 -0.8832674E-01  0.8832674E-01 -0.1766535E-01  -0.1000000E+01  0.0000000E+00  0.0000000E+00
 -0.8832674E-01 -0.8832674E-01 -0.1766535E-01  -0.1000000E+01  0.0000000E+00  0.0000000E+00
           4
 -0.8832674E-01 -0.8832674E-01 -0.1766535E-01  -0.0000000E+00 -0.1000000E+01 -0.0000000E+00
  0.8832674E-01 -0.8832674E-01 -0.1766535E-01  -0.0000000E+00 -0.1000000E+01 -0.0000000E+00
  0.8832674E-01 -0.8832674E-01  0.1766535E-01  -0.0000000E+00 -0.1000000E+01 -0.0000000E+00
 -0.8832674E-01 -0.8832674E-01  0.1766535E-01  -0.0000000E+00 -0.1000000E+01 -0.0000000E+00
           4
 -0.8832674E-01  0.8832674E-01 -0.1766535E-01  -0.1389715E-16  0.1389715E-16 -0.1000000E+01
  0.8832674E-01  0.8832674E-01 -0.1766535E-01  -0.1389715E-16  0.1389715E-16 -0.1000000E+01
  0.8832674E-01 -0.8832674E-01 -0.1766535E-01  -0.1389715E-16  0.1389715E-16 -0.1000000E+01
 -0.8832674E-01 -0.8832674E-01 -0.1766535E-01  -0.1389715E-16  0.1389715E-16 -0.1000000E+01
           4
 -0.8832674E-01 -0.8832674E-01  0.1766535E-01  -0.1389715E-16  0.1389715E-16  0.1000000E+01
  0.8832674E-01 -0.8832674E-01  0.1766535E-01  -0.1389715E-16  0.1389715E-16  0.1000000E+01
  0.8832674E-01  0.8832674E-01  0.1766535E-01  -0.1389715E-16  0.1389715E-16  0.1000000E+01
 -0.8832674E-01  0.8832674E-01  0.1766535E-01  -0.1389715E-16  0.1389715E-16  0.1000000E+01
           4
 -0.8832674E-01  0.8832674E-01  0.1766535E-01   0.0000000E+00  0.1000000E+01  0.0000000E+00
  0.8832674E-01  0.8832674E-01  0.1766535E-01   0.0000000E+00  0.1000000E+01  0.0000000E+00
  0.8832674E-01  0.8832674E-01 -0.1766535E-01   0.0000000E+00  0.1000000E+01  0.0000000E+00
 -0.8832674E-01  0.8832674E-01 -0.1766535E-01   0.0000000E+00  0.1000000E+01  0.0000000E+00
           4
  0.8832674E-01 -0.8832674E-01 -0.1766535E-01   0.1000000E+01 -0.0000000E+00 -0.0000000E+00
  0.8832674E-01  0.8832674E-01 -0.1766535E-01   0.1000000E+01 -0.0000000E+00 -0.0000000E+00
  0.8832674E-01  0.8832674E-01  0.1766535E-01   0.1000000E+01 -0.0000000E+00 -0.0000000E+00
  0.8832674E-01 -0.8832674E-01  0.1766535E-01   0.1000000E+01 -0.0000000E+00 -0.0000000E+00
 BRILLOUIN-ZONE-CONVCELL_END
 ATOMS
   33    1.4152000000    1.4152000000    1.4152000000
   33    4.2456000000    1.4152000000    4.2456000000
   33    4.2456000000    4.2456000000    1.4152000000
   33    1.4152000000    4.2456000000    4.2456000000
   33    1.4152000000    1.4152000000   24.0584000000
   33    1.4152000000    1.4152000000   12.7368000000
   33    1.4152000000    1.4152000000    7.0760000000
   33    1.4152000000    1.4152000000   18.3976000000
   33    4.2456000000    1.4152000000   26.8888000000
   33    4.2456000000    1.4152000000   15.5672000000
   33    4.2456000000    1.4152000000    9.9064000000
   33    4.2456000000    1.4152000000   21.2280000000
   33    4.2456000000    4.2456000000   24.0584000000
   33    4.2456000000    4.2456000000   12.7368000000
   33    4.2456000000    4.2456000000    7.0760000000
   33    4.2456000000    4.2456000000   18.3976000000
   33    1.4152000000    4.2456000000   26.8888000000
   33    1.4152000000    4.2456000000   15.5672000000
   33    1.4152000000    4.2456000000    9.9064000000
   33    1.4152000000    4.2456000000   21.2280000000
   13    0.0000000000    0.0000000000    0.0000000000
   13    2.8304000000    2.8304000000    0.0000000000
   13    2.8304000000    0.0000000000    2.8304000000
   13    0.0000000000    2.8304000000    2.8304000000
   31    0.0000000000    0.0000000000    5.6608000000
   31    2.8304000000    2.8304000000    5.6608000000
   31    2.8304000000    0.0000000000    8.4912000000
   31    0.0000000000    2.8304000000    8.4912000000
   13    0.0000000000    0.0000000000   11.3216000000
   13    2.8304000000    2.8304000000   11.3216000000
   13    2.8304000000    0.0000000000   14.1520000000
   13    0.0000000000    2.8304000000   14.1520000000
   31    0.0000000000    0.0000000000   16.9824000000
   31    2.8304000000    2.8304000000   16.9824000000
   31    2.8304000000    0.0000000000   19.8128000000
   31    0.0000000000    2.8304000000   19.8128000000
   13    0.0000000000    0.0000000000   22.6432000000
   13    2.8304000000    2.8304000000   22.6432000000
   13    2.8304000000    0.0000000000   25.4736000000
   13    0.0000000000    2.8304000000   25.4736000000
   13    0.0000000000    0.0000000000   28.3040000000
   13    2.8304000000    2.8304000000   28.3040000000
   13    0.0000000000    5.6608000000    0.0000000000
   13    2.8304000000    5.6608000000    2.8304000000
   31    0.0000000000    5.6608000000    5.6608000000
   31    2.8304000000    5.6608000000    8.4912000000
   13    0.0000000000    5.6608000000   11.3216000000
   13    2.8304000000    5.6608000000   14.1520000000
   31    0.0000000000    5.6608000000   16.9824000000
   31    2.8304000000    5.6608000000   19.8128000000
   13    0.0000000000    5.6608000000   22.6432000000
   13    2.8304000000    5.6608000000   25.4736000000
   13    0.0000000000    5.6608000000   28.3040000000
   13    5.6608000000    0.0000000000    0.0000000000
   13    5.6608000000    2.8304000000    2.8304000000
   31    5.6608000000    0.0000000000    5.6608000000
   31    5.6608000000    2.8304000000    8.4912000000
   13    5.6608000000    0.0000000000   11.3216000000
   13    5.6608000000    2.8304000000   14.1520000000
   31    5.6608000000    0.0000000000   16.9824000000
   31    5.6608000000    2.8304000000   19.8128000000
   13    5.6608000000    0.0000000000   22.6432000000
   13    5.6608000000    2.8304000000   25.4736000000
   13    5.6608000000    0.0000000000   28.3040000000
   13    5.6608000000    5.6608000000    0.0000000000
   31    5.6608000000    5.6608000000    5.6608000000
   13    5.6608000000    5.6608000000   11.3216000000
   31    5.6608000000    5.6608000000   16.9824000000
   13    5.6608000000    5.6608000000   22.6432000000
   13    5.6608000000    5.6608000000   28.3040000000
 FRAMES
1      0.0000000000    0.0000000000    0.0000000000      5.6608000000    0.0000000000    0.0000000000
1      0.0000000000    0.0000000000    0.0000000000      0.0000000000    5.6608000000    0.0000000000
1      0.0000000000    0.0000000000    0.0000000000      0.0000000000    0.0000000000   28.3040000000
1      0.0000000000    0.0000000000   28.3040000000      5.6608000000    0.0000000000   28.3040000000
1      0.0000000000    0.0000000000   28.3040000000      0.0000000000    5.6608000000   28.3040000000
1      0.0000000000    5.6608000000    0.0000000000      5.6608000000    5.6608000000    0.0000000000
1      0.0000000000    5.6608000000    0.0000000000      0.0000000000    5.6608000000   28.3040000000
1      0.0000000000    5.6608000000   28.3040000000      5.6608000000    5.6608000000   28.3040000000
1      5.6608000000    0.0000000000    0.0000000000      5.6608000000    5.6608000000    0.0000000000
1      5.6608000000    0.0000000000    0.0000000000      5.6608000000    0.0000000000   28.3040000000
1      5.6608000000    0.0000000000   28.3040000000      5.6608000000    5.6608000000   28.3040000000
1      5.6608000000    5.6608000000    0.0000000000      5.6608000000    5.6608000000   28.3040000000
